36

H       -5.792301624  -9.592838906  -7.700491028
C       -5.502308744  -8.565242175  -7.477839088
H       -5.945281512  -7.840587426  -9.460501738
C       -5.587243036  -7.582315818  -8.462524430
H       -4.967227449  -8.974798901  -5.413381187
C       -5.045811758  -8.232150372  -6.207712816
C       -5.214102161  -6.264650941  -8.172302412
C       -4.670275887  -6.914764486  -5.913072366
H       -5.284313502  -5.500848696  -8.949159982
C       -4.756728100  -5.924522185  -6.906637814
N       -4.224293878  -6.708318268  -4.591395566
N       -3.874143580  -5.516713565  -4.306385753
H       -4.461417274  -4.904802612  -6.661349460
H       -3.047707702  -3.271717882  -3.431665683
C       -3.013748896  -4.033079418  -2.651523241
C       -3.435889308  -5.334272837  -2.971787070
C       -2.564933134  -3.738988116  -1.368346513
C       -3.408448881  -6.339076823  -1.999978033
H       -3.735247067  -7.347877593  -2.245169824
C       -2.536684375  -4.735171459  -0.398120566
C       -2.959675670  -6.038020731  -0.710408332
H       -2.192174518  -4.532771692   0.616704573
N       -2.889480919  -6.968313853   0.355322649
H       -4.031245918 -10.532255500  -0.255068616
C       -3.674923011 -10.371309938   0.762700926
H       -4.017053755 -12.389320736   1.431558383
N       -3.288181060  -8.142470034   0.061416797
C       -3.663057708 -11.394263907   1.703898466
C       -3.223419516  -9.089487191   1.104149570
C       -3.198030675 -11.142542072   2.993714676
C       -2.753924555  -8.837290717   2.404556256
H       -3.187666172 -11.943285039   3.735023338
C       -2.744380233  -9.863929566   3.338691396
H       -2.404268141  -7.835730023   2.653157878
H       -2.380712982  -9.675648725   4.350685485
H       -2.236817298  -2.728391800  -1.122968874
